[root]
type=Root
children=system
eventq_index=0
full_system=true
sim_quantum=0
time_sync_enable=false
time_sync_period=100000000000
time_sync_spin_threshold=100000000

[system]
type=LinuxArmSystem
children=bootmem bridge cf0 clk_domain cpu0 cpu1 cpu2 cpu3 cpu_clk_domain cpu_voltage_domain disk2 dvfs_handler intrctrl iobus iocache l2 mem_ctrls membus pci_ide realview terminal tol2bus vncserver voltage_domain
atags_addr=134217728
auto_reset_addr=false
boot_loader=/home/labvant/fs/binaries/boot_emm.arm64 /home/labvant/fs/binaries/boot_emm.arm
boot_osflags=earlyprintk=pl011,0x1c090000 console=ttyAMA0 lpj=19988480 norandmaps rw loglevel=8 mem=1GB root=/dev/sda1
cache_line_size=64
dtb_filename=/home/labvant/fs/binaries/armv8_gem5_v1_4cpu.dtb
early_kernel_symbols=false
enable_context_switch_stats_dump=false
eventq_index=0
exit_on_work_items=false
flags_addr=469827632
gic_cpu_addr=738205696
have_crypto=false
have_large_asid_64=false
have_lpae=true
have_lse=true
have_pan=true
have_security=false
have_sve=true
have_virtualization=false
highest_el_is_64=false
init_param=0
kernel=/home/labvant/fs/binaries/vmlinux.vexpress_gem5_v1_64
kernel_addr_check=true
kernel_extras=
load_addr_mask=0
load_offset=2147483648
m5ops_base=268500992
machine_type=DTOnly
mem_mode=timing
mem_ranges=2147483648:3221225471
memories=system.bootmem system.mem_ctrls
mmap_using_noreserve=false
multi_proc=true
multi_thread=false
num_work_ids=16
panic_on_oops=false
panic_on_panic=false
phys_addr_range_64=40
readfile=test.rcS
redirect_paths=
reset_addr=0
semihosting=Null
sve_vl=1
symbolfile=
thermal_components=
thermal_model=Null
work_begin_ckpt_count=0
work_begin_cpu_id_exit=-1
work_begin_exit_count=0
work_cpus_ckpt_count=0
work_end_ckpt_count=0
work_end_exit_count=0
work_item_id=-1
system_port=system.membus.slave[1]

[system.bootmem]
type=SimpleMemory
bandwidth=73.000000
clk_domain=system.clk_domain
conf_table_reported=false
default_p_state=UNDEFINED
eventq_index=0
in_addr_map=true
kvm_map=true
latency=30000
latency_var=0
null=false
p_state_clk_gate_bins=20
p_state_clk_gate_max=1000000000000
p_state_clk_gate_min=1000
power_model=
range=0:67108863
port=system.membus.master[1]

[system.bridge]
type=Bridge
clk_domain=system.clk_domain
default_p_state=UNDEFINED
delay=50000
eventq_index=0
p_state_clk_gate_bins=20
p_state_clk_gate_max=1000000000000
p_state_clk_gate_min=1000
power_model=
ranges=201326592:536870911 788529152:2147483647
req_size=16
resp_size=16
master=system.iobus.slave[0]
slave=system.membus.master[0]

[system.cf0]
type=IdeDisk
children=image
delay=1000000
driveID=master
eventq_index=0
image=system.cf0.image

[system.cf0.image]
type=CowDiskImage
children=child
child=system.cf0.image.child
eventq_index=0
image_file=
read_only=false
table_size=65536

[system.cf0.image.child]
type=RawDiskImage
eventq_index=0
image_file=/home/labvant/fs/disks/linaro-minimal-aarch64.img
read_only=true

[system.clk_domain]
type=SrcClockDomain
clock=1000
domain_id=-1
eventq_index=0
init_perf_level=0
voltage_domain=system.voltage_domain

[system.cpu0]
type=MinorCPU
children=branchPred dcache dstage2_mmu dtb dtb_walker_cache executeFuncUnits icache interrupts isa istage2_mmu itb itb_walker_cache tracer
branchPred=system.cpu0.branchPred
checker=Null
clk_domain=system.cpu_clk_domain
cpu_id=0
decodeCycleInput=true
decodeInputBufferSize=3
decodeInputWidth=2
decodeToExecuteForwardDelay=1
default_p_state=UNDEFINED
do_checkpoint_insts=true
do_quiesce=true
do_statistics_insts=true
dstage2_mmu=system.cpu0.dstage2_mmu
dtb=system.cpu0.dtb
enableIdling=true
eventq_index=0
executeAllowEarlyMemoryIssue=true
executeBranchDelay=1
executeCommitLimit=2
executeCycleInput=true
executeFuncUnits=system.cpu0.executeFuncUnits
executeInputBufferSize=7
executeInputWidth=2
executeIssueLimit=2
executeLSQMaxStoreBufferStoresPerCycle=2
executeLSQRequestsQueueSize=1
executeLSQStoreBufferSize=5
executeLSQTransfersQueueSize=2
executeMaxAccessesInMemory=2
executeMemoryCommitLimit=1
executeMemoryIssueLimit=1
executeMemoryWidth=0
executeSetTraceTimeOnCommit=true
executeSetTraceTimeOnIssue=false
fetch1FetchLimit=1
fetch1LineSnapWidth=0
fetch1LineWidth=0
fetch1ToFetch2BackwardDelay=1
fetch1ToFetch2ForwardDelay=1
fetch2CycleInput=true
fetch2InputBufferSize=2
fetch2ToDecodeForwardDelay=1
function_trace=false
function_trace_start=0
interrupts=system.cpu0.interrupts
isa=system.cpu0.isa
istage2_mmu=system.cpu0.istage2_mmu
itb=system.cpu0.itb
max_insts_all_threads=0
max_insts_any_thread=0
max_loads_all_threads=0
max_loads_any_thread=0
numThreads=1
p_state_clk_gate_bins=20
p_state_clk_gate_max=1000000000000
p_state_clk_gate_min=1000
power_gating_on_idle=false
power_model=
profile=0
progress_interval=0
pwr_gating_latency=300
simpoint_start_insts=
socket_id=0
switched_out=false
syscallRetryLatency=10000
system=system
threadPolicy=RoundRobin
tracer=system.cpu0.tracer
wait_for_remote_gdb=false
workload=
dcache_port=system.cpu0.dcache.cpu_side
icache_port=system.cpu0.icache.cpu_side

[system.cpu0.branchPred]
type=TournamentBP
children=indirectBranchPred
BTBEntries=128
BTBTagSize=18
RASSize=8
choiceCtrBits=2
choicePredictorSize=1024
eventq_index=0
globalCtrBits=2
globalPredictorSize=1024
indirectBranchPred=system.cpu0.branchPred.indirectBranchPred
instShiftAmt=2
localCtrBits=2
localHistoryTableSize=64
localPredictorSize=64
numThreads=1

[system.cpu0.branchPred.indirectBranchPred]
type=SimpleIndirectPredictor
eventq_index=0
indirectGHRBits=13
indirectHashGHR=true
indirectHashTargets=true
indirectPathLength=3
indirectSets=256
indirectTagSize=16
indirectWays=2
instShiftAmt=2
numThreads=1

[system.cpu0.dcache]
type=Cache
children=prefetcher replacement_policy tags
addr_ranges=0:18446744073709551615
assoc=2
clk_domain=system.cpu_clk_domain
clusivity=mostly_incl
compressor=Null
data_latency=4
default_p_state=UNDEFINED
demand_mshr_reserve=1
eventq_index=0
is_read_only=false
max_miss_count=0
mshrs=4
p_state_clk_gate_bins=20
p_state_clk_gate_max=1000000000000
p_state_clk_gate_min=1000
power_model=
prefetch_on_access=false
prefetcher=system.cpu0.dcache.prefetcher
replacement_policy=system.cpu0.dcache.replacement_policy
response_latency=4
sequential_access=false
size=16384
system=system
tag_latency=4
tags=system.cpu0.dcache.tags
tgts_per_mshr=8
warmup_percentage=0
write_allocator=Null
write_buffers=4
writeback_clean=false
cpu_side=system.cpu0.dcache_port
mem_side=system.tol2bus.slave[1]

[system.cpu0.dcache.prefetcher]
type=StridePrefetcher
children=replacement_policy
block_size=64
cache_snoop=false
clk_domain=system.cpu_clk_domain
default_p_state=UNDEFINED
degree=4
eventq_index=0
latency=1
max_conf=7
max_prefetch_requests_with_pending_translation=32
min_conf=0
on_data=true
on_inst=false
on_miss=false
on_read=true
on_write=true
p_state_clk_gate_bins=20
p_state_clk_gate_max=1000000000000
p_state_clk_gate_min=1000
power_model=
prefetch_on_access=false
queue_filter=true
queue_size=4
queue_squash=true
replacement_policy=system.cpu0.dcache.prefetcher.replacement_policy
start_conf=4
sys=system
table_assoc=4
table_sets=16
tag_prefetch=true
thresh_conf=4
throttle_control_percentage=0
use_master_id=true
use_virtual_addresses=false

[system.cpu0.dcache.prefetcher.replacement_policy]
type=RandomRP
eventq_index=0

[system.cpu0.dcache.replacement_policy]
type=LRURP
eventq_index=0

[system.cpu0.dcache.tags]
type=BaseSetAssoc
children=indexing_policy
assoc=2
block_size=64
clk_domain=system.cpu_clk_domain
default_p_state=UNDEFINED
entry_size=64
eventq_index=0
indexing_policy=system.cpu0.dcache.tags.indexing_policy
p_state_clk_gate_bins=20
p_state_clk_gate_max=1000000000000
p_state_clk_gate_min=1000
power_model=
replacement_policy=system.cpu0.dcache.replacement_policy
sequential_access=false
size=16384
system=system
tag_latency=4
warmup_percentage=0

[system.cpu0.dcache.tags.indexing_policy]
type=SetAssociative
assoc=2
entry_size=64
eventq_index=0
size=16384

[system.cpu0.dstage2_mmu]
type=ArmStage2MMU
children=stage2_tlb
eventq_index=0
stage2_tlb=system.cpu0.dstage2_mmu.stage2_tlb
sys=system
tlb=system.cpu0.dtb

[system.cpu0.dstage2_mmu.stage2_tlb]
type=ArmTLB
children=walker
eventq_index=0
is_stage2=true
size=32
sys=system
walker=system.cpu0.dstage2_mmu.stage2_tlb.walker

[system.cpu0.dstage2_mmu.stage2_tlb.walker]
type=ArmTableWalker
clk_domain=system.cpu_clk_domain
default_p_state=UNDEFINED
eventq_index=0
is_stage2=true
num_squash_per_cycle=2
p_state_clk_gate_bins=20
p_state_clk_gate_max=1000000000000
p_state_clk_gate_min=1000
power_model=
sys=system

[system.cpu0.dtb]
type=ArmTLB
children=walker
eventq_index=0
is_stage2=false
size=256
sys=system
walker=system.cpu0.dtb.walker

[system.cpu0.dtb.walker]
type=ArmTableWalker
clk_domain=system.cpu_clk_domain
default_p_state=UNDEFINED
eventq_index=0
is_stage2=false
num_squash_per_cycle=2
p_state_clk_gate_bins=20
p_state_clk_gate_max=1000000000000
p_state_clk_gate_min=1000
power_model=
sys=system
port=system.cpu0.dtb_walker_cache.cpu_side

[system.cpu0.dtb_walker_cache]
type=Cache
children=replacement_policy tags
addr_ranges=0:18446744073709551615
assoc=8
clk_domain=system.cpu_clk_domain
clusivity=mostly_incl
compressor=Null
data_latency=4
default_p_state=UNDEFINED
demand_mshr_reserve=1
eventq_index=0
is_read_only=false
max_miss_count=0
mshrs=6
p_state_clk_gate_bins=20
p_state_clk_gate_max=1000000000000
p_state_clk_gate_min=1000
power_model=
prefetch_on_access=false
prefetcher=Null
replacement_policy=system.cpu0.dtb_walker_cache.replacement_policy
response_latency=4
sequential_access=false
size=1024
system=system
tag_latency=4
tags=system.cpu0.dtb_walker_cache.tags
tgts_per_mshr=8
warmup_percentage=0
write_allocator=Null
write_buffers=16
writeback_clean=false
cpu_side=system.cpu0.dtb.walker.port
mem_side=system.tol2bus.slave[3]

[system.cpu0.dtb_walker_cache.replacement_policy]
type=LRURP
eventq_index=0

[system.cpu0.dtb_walker_cache.tags]
type=BaseSetAssoc
children=indexing_policy
assoc=8
block_size=64
clk_domain=system.cpu_clk_domain
default_p_state=UNDEFINED
entry_size=64
eventq_index=0
indexing_policy=system.cpu0.dtb_walker_cache.tags.indexing_policy
p_state_clk_gate_bins=20
p_state_clk_gate_max=1000000000000
p_state_clk_gate_min=1000
power_model=
replacement_policy=system.cpu0.dtb_walker_cache.replacement_policy
sequential_access=false
size=1024
system=system
tag_latency=4
warmup_percentage=0

[system.cpu0.dtb_walker_cache.tags.indexing_policy]
type=SetAssociative
assoc=8
entry_size=64
eventq_index=0
size=1024

[system.cpu0.executeFuncUnits]
type=MinorFUPool
children=funcUnits0 funcUnits1 funcUnits2 funcUnits3 funcUnits4 funcUnits5 funcUnits6
eventq_index=0
funcUnits=system.cpu0.executeFuncUnits.funcUnits0 system.cpu0.executeFuncUnits.funcUnits1 system.cpu0.executeFuncUnits.funcUnits2 system.cpu0.executeFuncUnits.funcUnits3 system.cpu0.executeFuncUnits.funcUnits4 system.cpu0.executeFuncUnits.funcUnits5 system.cpu0.executeFuncUnits.funcUnits6

[system.cpu0.executeFuncUnits.funcUnits0]
type=MinorFU
children=opClasses timings00 timings01 timings02 timings03 timings04 timings05 timings06 timings07 timings08 timings09 timings10 timings11 timings12 timings13 timings14 timings15 timings16 timings17 timings18 timings19 timings20 timings21 timings22 timings23 timings24 timings25 timings26 timings27 timings28 timings29 timings30 timings31 timings32 timings33 timings34 timings35 timings36 timings37 timings38 timings39 timings40 timings41 timings42
cantForwardFromFUIndices=
eventq_index=0
issueLat=1
opClasses=system.cpu0.executeFuncUnits.funcUnits0.opClasses
opLat=3
timings=system.cpu0.executeFuncUnits.funcUnits0.timings00 system.cpu0.executeFuncUnits.funcUnits0.timings01 system.cpu0.executeFuncUnits.funcUnits0.timings02 system.cpu0.executeFuncUnits.funcUnits0.timings03 system.cpu0.executeFuncUnits.funcUnits0.timings04 system.cpu0.executeFuncUnits.funcUnits0.timings05 system.cpu0.executeFuncUnits.funcUnits0.timings06 system.cpu0.executeFuncUnits.funcUnits0.timings07 system.cpu0.executeFuncUnits.funcUnits0.timings08 system.cpu0.executeFuncUnits.funcUnits0.timings09 system.cpu0.executeFuncUnits.funcUnits0.timings10 system.cpu0.executeFuncUnits.funcUnits0.timings11 system.cpu0.executeFuncUnits.funcUnits0.timings12 system.cpu0.executeFuncUnits.funcUnits0.timings13 system.cpu0.executeFuncUnits.funcUnits0.timings14 system.cpu0.executeFuncUnits.funcUnits0.timings15 system.cpu0.executeFuncUnits.funcUnits0.timings16 system.cpu0.executeFuncUnits.funcUnits0.timings17 system.cpu0.executeFuncUnits.funcUnits0.timings18 system.cpu0.executeFuncUnits.funcUnits0.timings19 system.cpu0.executeFuncUnits.funcUnits0.timings20 system.cpu0.executeFuncUnits.funcUnits0.timings21 system.cpu0.executeFuncUnits.funcUnits0.timings22 system.cpu0.executeFuncUnits.funcUnits0.timings23 system.cpu0.executeFuncUnits.funcUnits0.timings24 system.cpu0.executeFuncUnits.funcUnits0.timings25 system.cpu0.executeFuncUnits.funcUnits0.timings26 system.cpu0.executeFuncUnits.funcUnits0.timings27 system.cpu0.executeFuncUnits.funcUnits0.timings28 system.cpu0.executeFuncUnits.funcUnits0.timings29 system.cpu0.executeFuncUnits.funcUnits0.timings30 system.cpu0.executeFuncUnits.funcUnits0.timings31 system.cpu0.executeFuncUnits.funcUnits0.timings32 system.cpu0.executeFuncUnits.funcUnits0.timings33 system.cpu0.executeFuncUnits.funcUnits0.timings34 system.cpu0.executeFuncUnits.funcUnits0.timings35 system.cpu0.executeFuncUnits.funcUnits0.timings36 system.cpu0.executeFuncUnits.funcUnits0.timings37 system.cpu0.executeFuncUnits.funcUnits0.timings38 system.cpu0.executeFuncUnits.funcUnits0.timings39 system.cpu0.executeFuncUnits.funcUnits0.timings40 system.cpu0.executeFuncUnits.funcUnits0.timings41 system.cpu0.executeFuncUnits.funcUnits0.timings42

[system.cpu0.executeFuncUnits.funcUnits0.opClasses]
type=MinorOpClassSet
children=opClasses
eventq_index=0
opClasses=system.cpu0.executeFuncUnits.funcUnits0.opClasses.opClasses

[system.cpu0.executeFuncUnits.funcUnits0.opClasses.opClasses]
type=MinorOpClass
eventq_index=0
opClass=IntAlu

[system.cpu0.executeFuncUnits.funcUnits0.timings00]
type=MinorFUTiming
children=opClasses
description=HPI_SSAT_USAT_no_shift_A1
eventq_index=0
extraAssumedLat=0
extraCommitLat=0
extraCommitLatExpr=Null
mask=120521232368
match=111149072
opClasses=system.cpu0.executeFuncUnits.funcUnits0.timings00.opClasses
srcRegsRelativeLats=0 0 0 2 0
suppress=false

[system.cpu0.executeFuncUnits.funcUnits0.timings00.opClasses]
type=MinorOpClassSet
eventq_index=0
opClasses=

[system.cpu0.executeFuncUnits.funcUnits0.timings01]
type=MinorFUTiming
children=opClasses
description=HPI_SSAT_USAT_shift_A1
eventq_index=0
extraAssumedLat=0
extraCommitLat=0
extraCommitLatExpr=Null
mask=120521228336
match=111149072
opClasses=system.cpu0.executeFuncUnits.funcUnits0.timings01.opClasses
srcRegsRelativeLats=0 0 0 1 0
suppress=false

[system.cpu0.executeFuncUnits.funcUnits0.timings01.opClasses]
type=MinorOpClassSet
eventq_index=0
opClasses=

[system.cpu0.executeFuncUnits.funcUnits0.timings02]
type=MinorFUTiming
children=opClasses
description=HPI_SSAT16_USAT16_A1
eventq_index=0
extraAssumedLat=0
extraCommitLat=0
extraCommitLatExpr=Null
mask=120522277104
match=111149104
opClasses=system.cpu0.executeFuncUnits.funcUnits0.timings02.opClasses
srcRegsRelativeLats=0 0 0 2 0
suppress=false

[system.cpu0.executeFuncUnits.funcUnits0.timings02.opClasses]
type=MinorOpClassSet
eventq_index=0
opClasses=

[system.cpu0.executeFuncUnits.funcUnits0.timings03]
type=MinorFUTiming
children=opClasses
description=HPI_QADD_QSUB_A1
eventq_index=0
extraAssumedLat=0
extraCommitLat=0
extraCommitLatExpr=Null
mask=120524374256
match=16777296
opClasses=system.cpu0.executeFuncUnits.funcUnits0.timings03.opClasses
srcRegsRelativeLats=0 0 0 1 1 0
suppress=false

[system.cpu0.executeFuncUnits.funcUnits0.timings03.opClasses]
type=MinorOpClassSet
eventq_index=0
opClasses=

[system.cpu0.executeFuncUnits.funcUnits0.timings04]
type=MinorFUTiming
children=opClasses
description=HPI_QADD_QSUB_T1
eventq_index=0
extraAssumedLat=0
extraCommitLat=0
extraCommitLatExpr=Null
mask=124553064656
match=107281969280
opClasses=system.cpu0.executeFuncUnits.funcUnits0.timings04.opClasses
srcRegsRelativeLats=0 0 0 1 1 0
suppress=false

[system.cpu0.executeFuncUnits.funcUnits0.timings04.opClasses]
type=MinorOpClassSet
eventq_index=0
opClasses=

[system.cpu0.executeFuncUnits.funcUnits0.timings05]
type=MinorFUTiming
children=opClasses
description=HPI_QADD_ETC_A1
eventq_index=0
extraAssumedLat=0
extraCommitLat=0
extraCommitLatExpr=Null
mask=120522276880
match=102760464
opClasses=system.cpu0.executeFuncUnits.funcUnits0.timings05.opClasses
srcRegsRelativeLats=0 0 0 1 1 0
suppress=false

[system.cpu0.executeFuncUnits.funcUnits0.timings05.opClasses]
type=MinorOpClassSet
eventq_index=0
opClasses=

[system.cpu0.executeFuncUnits.funcUnits0.timings06]
type=MinorFUTiming
children=opClasses
description=HPI_QASX_QSAX_UQASX_UQSAX_T1
eventq_index=0
extraAssumedLat=0
extraCommitLat=0
extraCommitLatExpr=Null
mask=124548870320
match=107284066320
opClasses=system.cpu0.executeFuncUnits.funcUnits0.timings06.opClasses
srcRegsRelativeLats=0 0 0 1 1 0
suppress=false

[system.cpu0.executeFuncUnits.funcUnits0.timings06.opClasses]
type=MinorOpClassSet
eventq_index=0
opClasses=

[system.cpu0.executeFuncUnits.funcUnits0.timings07]
type=MinorFUTiming
children=opClasses
description=HPI_QADD_ETC_T1
eventq_index=0
extraAssumedLat=0
extraCommitLat=0
extraCommitLatExpr=Null
mask=124547821744
match=107281969168
opClasses=system.cpu0.executeFuncUnits.funcUnits0.timings07.opClasses
srcRegsRelativeLats=0 0 0 1 1 0
suppress=false

[system.cpu0.executeFuncUnits.funcUnits0.timings07.opClasses]
type=MinorOpClassSet
eventq_index=0
opClasses=

[system.cpu0.executeFuncUnits.funcUnits0.timings08]
type=MinorFUTiming
children=opClasses
description=HPI_USUB_ETC_A1
eventq_index=0
extraAssumedLat=0
extraCommitLat=0
extraCommitLatExpr=Null
mask=120520179824
match=101711984
opClasses=system.cpu0.executeFuncUnits.funcUnits0.timings08.opClasses
srcRegsRelativeLats=0 0 0 2 2 0
suppress=false

[system.cpu0.executeFuncUnits.funcUnits0.timings08.opClasses]
type=MinorOpClassSet
eventq_index=0
opClasses=

[system.cpu0.executeFuncUnits.funcUnits0.timings09]
type=MinorFUTiming
children=opClasses
description=HPI_ADD_ETC_A1
eventq_index=0
extraAssumedLat=0
extraCommitLat=0
extraCommitLatExpr=Null
mask=120520179824
match=101711888
opClasses=system.cpu0.executeFuncUnits.funcUnits0.timings09.opClasses
srcRegsRelativeLats=0 0 0 2 2 0
suppress=false

[system.cpu0.executeFuncUnits.funcUnits0.timings09.opClasses]
type=MinorOpClassSet
eventq_index=0
opClasses=

[system.cpu0.executeFuncUnits.funcUnits0.timings10]
type=MinorFUTiming
children=opClasses
description=HPI_ADD_ETC_A1
eventq_index=0
extraAssumedLat=0
extraCommitLat=0
extraCommitLatExpr=Null
mask=124552016016
match=107281969152
opClasses=system.cpu0.executeFuncUnits.funcUnits0.timings10.opClasses
srcRegsRelativeLats=0 0 0 2 2 0
suppress=false

[system.cpu0.executeFuncUnits.funcUnits0.timings10.opClasses]
type=MinorOpClassSet
eventq_index=0
opClasses=

[system.cpu0.executeFuncUnits.funcUnits0.timings11]
type=MinorFUTiming
children=opClasses
description=HPI_QDADD_QSUB_A1
eventq_index=0
extraAssumedLat=0
extraCommitLat=0
extraCommitLatExpr=Null
mask=120524374256
match=20971600
opClasses=system.cpu0.executeFuncUnits.funcUnits0.timings11.opClasses
srcRegsRelativeLats=0 0 0 0 1 0
suppress=false

[system.cpu0.executeFuncUnits.funcUnits0.timings11.opClasses]
type=MinorOpClassSet
eventq_index=0
opClasses=

[system.cpu0.executeFuncUnits.funcUnits0.timings12]
type=MinorFUTiming
children=opClasses
description=HPI_QDADD_QDSUB_T1
eventq_index=0
extraAssumedLat=0
extraCommitLat=0
extraCommitLatExpr=Null
mask=124553064656
match=107281969296
opClasses=system.cpu0.executeFuncUnits.funcUnits0.timings12.opClasses
srcRegsRelativeLats=0 0 0 0 1 0
suppress=false

[system.cpu0.executeFuncUnits.funcUnits0.timings12.opClasses]
type=MinorOpClassSet
eventq_index=0
opClasses=

[system.cpu0.executeFuncUnits.funcUnits0.timings13]
type=MinorFUTiming
children=opClasses
description=HPI_SASX_SHASX_UASX_UHASX_A1
eventq_index=0
extraAssumedLat=0
extraCommitLat=0
extraCommitLatExpr=Null
mask=120520179952
match=101711920
opClasses=system.cpu0.executeFuncUnits.funcUnits0.timings13.opClasses
srcRegsRelativeLats=3 3 2 2 2 1 0
suppress=false

[system.cpu0.executeFuncUnits.funcUnits0.timings13.opClasses]
type=MinorOpClassSet
eventq_index=0
opClasses=

[system.cpu0.executeFuncUnits.funcUnits0.timings14]
type=MinorFUTiming
children=opClasses
description=HPI_SHSAX_SSAX_UHSAX_USAX_A1
eventq_index=0
extraAssumedLat=0
extraCommitLat=0
extraCommitLatExpr=Null
mask=120520179952
match=101711952
opClasses=system.cpu0.executeFuncUnits.funcUnits0.timings14.opClasses
srcRegsRelativeLats=3 3 2 2 2 1 0
suppress=false

[system.cpu0.executeFuncUnits.funcUnits0.timings14.opClasses]
type=MinorOpClassSet
eventq_index=0
opClasses=

[system.cpu0.executeFuncUnits.funcUnits0.timings15]
type=MinorFUTiming
children=opClasses
description=HPI_SXTB_SXTB16_SXTH_UXTB_UXTB16_UXTH_A1
eventq_index=0
extraAssumedLat=0
extraCommitLat=0
extraCommitLatExpr=Null
mask=120520114416
match=110035056
opClasses=system.cpu0.executeFuncUnits.funcUnits0.timings15.opClasses
srcRegsRelativeLats=0 0 0 2 0
suppress=false

[system.cpu0.executeFuncUnits.funcUnits0.timings15.opClasses]
type=MinorOpClassSet
eventq_index=0
opClasses=

[system.cpu0.executeFuncUnits.funcUnits0.timings16]
type=MinorFUTiming
children=opClasses
description=HPI_SXTAB_SXTAB16_SXTAH_UXTAB_UXTAB16_UXTAH_A1
eventq_index=0
extraAssumedLat=0
extraCommitLat=0
extraCommitLatExpr=Null
mask=120519131376
match=109052016
opClasses=system.cpu0.executeFuncUnits.funcUnits0.timings16.opClasses
srcRegsRelativeLats=0 0 0 1 2 0
suppress=false

[system.cpu0.executeFuncUnits.funcUnits0.timings16.opClasses]
type=MinorOpClassSet
eventq_index=0
opClasses=

[system.cpu0.executeFuncUnits.funcUnits0.timings17]
type=MinorFUTiming
children=opClasses
description=HPI_SXTAB_T1
eventq_index=0
extraAssumedLat=0
extraCommitLat=0
extraCommitLatExpr=Null
mask=124553064576
match=107277774976
opClasses=system.cpu0.executeFuncUnits.funcUnits0.timings17.opClasses
srcRegsRelativeLats=0 0 0 1 2 0
suppress=false

[system.cpu0.executeFuncUnits.funcUnits0.timings17.opClasses]
type=MinorOpClassSet
eventq_index=0
opClasses=

[system.cpu0.executeFuncUnits.funcUnits0.timings18]
type=MinorFUTiming
children=opClasses
description=HPI_SXTAB16_T1
eventq_index=0
extraAssumedLat=0
extraCommitLat=0
extraCommitLatExpr=Null
mask=124553064576
match=107275677824
opClasses=system.cpu0.executeFuncUnits.funcUnits0.timings18.opClasses
srcRegsRelativeLats=0 0 0 1 2 0
suppress=false

[system.cpu0.executeFuncUnits.funcUnits0.timings18.opClasses]
type=MinorOpClassSet
eventq_index=0
opClasses=

[system.cpu0.executeFuncUnits.funcUnits0.timings19]
type=MinorFUTiming
children=opClasses
description=HPI_SXTAH_T1
eventq_index=0
extraAssumedLat=0
extraCommitLat=0
extraCommitLatExpr=Null
mask=124553064576
match=107273580672
opClasses=system.cpu0.executeFuncUnits.funcUnits0.timings19.opClasses
srcRegsRelativeLats=0 0 0 1 2 0
suppress=false

[system.cpu0.executeFuncUnits.funcUnits0.timings19.opClasses]
type=MinorOpClassSet
eventq_index=0
opClasses=

[system.cpu0.executeFuncUnits.funcUnits0.timings20]
type=MinorFUTiming
children=opClasses
description=HPI_SXTB_T2
eventq_index=0
extraAssumedLat=0
extraCommitLat=0
extraCommitLatExpr=Null
mask=124554047616
match=107278758016
opClasses=system.cpu0.executeFuncUnits.funcUnits0.timings20.opClasses
srcRegsRelativeLats=0 0 0 1 2 0
suppress=false

[system.cpu0.executeFuncUnits.funcUnits0.timings20.opClasses]
type=MinorOpClassSet
eventq_index=0
opClasses=

[system.cpu0.executeFuncUnits.funcUnits0.timings21]
type=MinorFUTiming
children=opClasses
description=HPI_SXTB16_T1
eventq_index=0
extraAssumedLat=0
extraCommitLat=0
extraCommitLatExpr=Null
mask=124554047616
match=107276660864
opClasses=system.cpu0.executeFuncUnits.funcUnits0.timings21.opClasses
srcRegsRelativeLats=0 0 0 1 2 0
suppress=false

[system.cpu0.executeFuncUnits.funcUnits0.timings21.opClasses]
type=MinorOpClassSet
eventq_index=0
opClasses=

[system.cpu0.executeFuncUnits.funcUnits0.timings22]
type=MinorFUTiming
children=opClasses
description=HPI_SXTH_T2
eventq_index=0
extraAssumedLat=0
extraCommitLat=0
extraCommitLatExpr=Null
mask=124554047616
match=107274563712
opClasses=system.cpu0.executeFuncUnits.funcUnits0.timings22.opClasses
srcRegsRelativeLats=0 0 0 1 2 0
suppress=false

[system.cpu0.executeFuncUnits.funcUnits0.timings22.opClasses]
type=MinorOpClassSet
eventq_index=0
opClasses=

[system.cpu0.executeFuncUnits.funcUnits0.timings23]
type=MinorFUTiming
children=opClasses
description=HPI_PKH_A1
eventq_index=0
extraAssumedLat=0
extraCommitLat=0
extraCommitLatExpr=Null
mask=120526471216
match=109051920
opClasses=system.cpu0.executeFuncUnits.funcUnits0.timings23.opClasses
srcRegsRelativeLats=0 0 0 2 1 0
suppress=false

[system.cpu0.executeFuncUnits.funcUnits0.timings23.opClasses]
type=MinorOpClassSet
eventq_index=0
opClasses=

[system.cpu0.executeFuncUnits.funcUnits0.timings24]
type=MinorFUTiming
children=opClasses
description=HPI_PKH_T1
eventq_index=0
extraAssumedLat=0
extraCommitLat=0
extraCommitLatExpr=Null
mask=124551954432
match=107017666560
opClasses=system.cpu0.executeFuncUnits.funcUnits0.timings24.opClasses
srcRegsRelativeLats=0 0 0 2 1 0
suppress=false

[system.cpu0.executeFuncUnits.funcUnits0.timings24.opClasses]
type=MinorOpClassSet
eventq_index=0
opClasses=

[system.cpu0.executeFuncUnits.funcUnits0.timings25]
type=MinorFUTiming
children=opClasses
description=HPI_SBFX_UBFX_A1
eventq_index=0
extraAssumedLat=0
extraCommitLat=0
extraCommitLatExpr=Null
mask=120521228400
match=127926352
opClasses=system.cpu0.executeFuncUnits.funcUnits0.timings25.opClasses
srcRegsRelativeLats=0 0 0 1 0
suppress=false

[system.cpu0.executeFuncUnits.funcUnits0.timings25.opClasses]
type=MinorOpClassSet
eventq_index=0
opClasses=

[system.cpu0.executeFuncUnits.funcUnits0.timings26]
type=MinorFUTiming
children=opClasses
description=HPI_SEL_A1
eventq_index=0
extraAssumedLat=0
extraCommitLat=0
extraCommitLatExpr=Null
mask=120526471408
match=109052080
opClasses=system.cpu0.executeFuncUnits.funcUnits0.timings26.opClasses
srcRegsRelativeLats=0 0 0 0 2 2 0
suppress=false

[system.cpu0.executeFuncUnits.funcUnits0.timings26.opClasses]
type=MinorOpClassSet
eventq_index=0
opClasses=

[system.cpu0.executeFuncUnits.funcUnits0.timings27]
type=MinorFUTiming
children=opClasses
description=HPI_RBIT_A1
eventq_index=0
extraAssumedLat=0
extraCommitLat=0
extraCommitLatExpr=Null
mask=120526471408
match=116391984
opClasses=system.cpu0.executeFuncUnits.funcUnits0.timings27.opClasses
srcRegsRelativeLats=0 0 0 1 0
suppress=false

[system.cpu0.executeFuncUnits.funcUnits0.timings27.opClasses]
type=MinorOpClassSet
eventq_index=0
opClasses=

[system.cpu0.executeFuncUnits.funcUnits0.timings28]
type=MinorFUTiming
children=opClasses
description=HPI_REV_REV16_A1
eventq_index=0
extraAssumedLat=0
extraCommitLat=0
extraCommitLatExpr=Null
mask=120526471280
match=112197680
opClasses=system.cpu0.executeFuncUnits.funcUnits0.timings28.opClasses
srcRegsRelativeLats=0 0 0 1 0
suppress=false

[system.cpu0.executeFuncUnits.funcUnits0.timings28.opClasses]
type=MinorOpClassSet
eventq_index=0
opClasses=

[system.cpu0.executeFuncUnits.funcUnits0.timings29]
type=MinorFUTiming
children=opClasses
description=HPI_REVSH_A1
eventq_index=0
extraAssumedLat=0
extraCommitLat=0
extraCommitLatExpr=Null
mask=120526471408
match=116392112
opClasses=system.cpu0.executeFuncUnits.funcUnits0.timings29.opClasses
srcRegsRelativeLats=0 0 0 1 0
suppress=false

[system.cpu0.executeFuncUnits.funcUnits0.timings29.opClasses]
type=MinorOpClassSet
eventq_index=0
opClasses=

[system.cpu0.executeFuncUnits.funcUnits0.timings30]
type=MinorFUTiming
children=opClasses
description=HPI_USAD8_USADA8_A1
eventq_index=0
extraAssumedLat=0
extraCommitLat=0
extraCommitLatExpr=Null
mask=120526471408
match=125829136
opClasses=system.cpu0.executeFuncUnits.funcUnits0.timings30.opClasses
srcRegsRelativeLats=0 0 0 0 0 2 0
suppress=false

[system.cpu0.executeFuncUnits.funcUnits0.timings30.opClasses]
type=MinorOpClassSet
eventq_index=0
opClasses=

[system.cpu0.executeFuncUnits.funcUnits0.timings31]
type=MinorFUTiming
children=opClasses
description=HPI_BFI_A1
eventq_index=0
extraAssumedLat=0
extraCommitLat=0
extraCommitLatExpr=Null
mask=120525422704
match=130023440
opClasses=system.cpu0.executeFuncUnits.funcUnits0.timings31.opClasses
srcRegsRelativeLats=0 0 0 1 1 0
suppress=false

[system.cpu0.executeFuncUnits.funcUnits0.timings31.opClasses]
type=MinorOpClassSet
eventq_index=0
opClasses=

[system.cpu0.executeFuncUnits.funcUnits0.timings32]
type=MinorFUTiming
children=opClasses
description=HPI_BFI_T1
eventq_index=0
extraAssumedLat=0
extraCommitLat=0
extraCommitLatExpr=Null
mask=124485926912
match=107162370048
opClasses=system.cpu0.executeFuncUnits.funcUnits0.timings32.opClasses
srcRegsRelativeLats=0 0 0 1 1 0
suppress=false

[system.cpu0.executeFuncUnits.funcUnits0.timings32.opClasses]
type=MinorOpClassSet
eventq_index=0
opClasses=

[system.cpu0.executeFuncUnits.funcUnits0.timings33]
type=MinorFUTiming
children=opClasses
description=HPI_CMN_register_A1
eventq_index=0
extraAssumedLat=0
extraCommitLat=0
extraCommitLatExpr=Null
mask=120526471184
match=24117248
opClasses=system.cpu0.executeFuncUnits.funcUnits0.timings33.opClasses
srcRegsRelativeLats=3 3 3 2 2 3 3 3 0
suppress=false

[system.cpu0.executeFuncUnits.funcUnits0.timings33.opClasses]
type=MinorOpClassSet
eventq_index=0
opClasses=

[system.cpu0.executeFuncUnits.funcUnits0.timings34]
type=MinorFUTiming
children=opClasses
description=HPI_CMN_immediate_A1
eventq_index=0
extraAssumedLat=0
extraCommitLat=0
extraCommitLatExpr=Null
mask=120526471168
match=57671680
opClasses=system.cpu0.executeFuncUnits.funcUnits0.timings34.opClasses
srcRegsRelativeLats=3 3 3 2 2 3 3 3 0
suppress=false

[system.cpu0.executeFuncUnits.funcUnits0.timings34.opClasses]
type=MinorOpClassSet
eventq_index=0
opClasses=
